Rede13Barras/Bibliotecas/LineCodes1.dss
New linecode.601 nphases=3 BaseFreq=60
!!!~ rmatrix = (0.0674673 | 0.0312137 0.0654777 | 0.0316143 0.0306264 0.0662392 )
!!!~ xmatrix = (0.195204  | 0.0935314 0.201861 | 0.0855879 0.0760312 0.199298 )
!!!~ cmatrix = (3.32591   | -0.743055 3.04217 | -0.525237 -0.238111 3.03116 )
~ rmatrix = [0.065625    | 0.029545455  0.063920455  | 0.029924242  0.02907197  0.064659091]
~ xmatrix = [0.192784091 | 0.095018939  0.19844697   | 0.080227273  0.072897727  0.195984848]
~ cmatrix = [3.164838036 | -1.002632425  2.993981593 | -0.632736516  -0.372608713  2.832670203]
New linecode.602 nphases=3 BaseFreq=60
!!!~ rmatrix = (0.144361 | 0.0316143 0.143133 | 0.0312137 0.0306264 0.142372 )
!!!~ xmatrix = (0.226028 | 0.0855879 0.230122 | 0.0935314 0.0760312 0.232686 )
!!!~ cmatrix = (3.01091  | -0.443561 2.77543  | -0.624494 -0.209615 2.77847 )
~ rmatrix = [0.142537879 | 0.029924242  0.14157197   | 0.029545455  0.02907197  0.140833333]
~ xmatrix = [0.22375     | 0.080227273  0.226950758  | 0.095018939  0.072897727  0.229393939]
~ cmatrix = [2.863013423 | -0.543414918  2.602031589 | -0.8492585  -0.330962141  2.725162768]
New linecode.603 nphases=2 BaseFreq=60
!!!~ rmatrix = (0.254472 | 0.0417943 0.253371 )
!!!~ xmatrix = (0.259467 | 0.0912376 0.261431 )
!!!~ cmatrix = (2.54676  | -0.28882 2.49502 )
~ rmatrix = [0.251780303 | 0.039128788  0.250719697]
~ xmatrix = [0.255132576 | 0.086950758  0.256988636]
~ cmatrix = [2.366017603 | -0.452083836  2.343963508]
New linecode.604 nphases=2 BaseFreq=60
!!!~ rmatrix = (0.253371 | 0.0417943 0.254472 )
!!!~ xmatrix = (0.261431 | 0.0912376 0.259467 )
!!!~ cmatrix = (2.49502 | -0.28882 2.54676 )
~ rmatrix = [0.250719697 | 0.039128788   0.251780303]
~ xmatrix = [0.256988636  | 0.086950758  0.255132576]
~ cmatrix = [2.343963508 | -0.452083836 2.366017603]
New linecode.605 nphases=1 BaseFreq=60
!!!~ rmatrix = (0.254428 )
!!!~ xmatrix = (0.259546 )
!!!~ cmatrix = (2.50575 )
~ rmatrix = [0.251742424]
~ xmatrix = [0.255208333]
~ cmatrix = [2.270366128]
New linecode.606 nphases=3 BaseFreq=60
!!!~ rmatrix = (0.152193 | 0.0611362 0.15035 | 0.0546992 0.0611362 0.152193 )
!!!~ xmatrix = (0.0825685 | 0.00548281 0.0745027 | -0.00339824 0.00548281 0.0825685 )
!!!~ cmatrix = (72.7203 | 0 72.7203 | 0 0 72.7203 )
~ rmatrix = [0.151174242 | 0.060454545  0.149450758 | 0.053958333  0.060454545  0.151174242]
~ xmatrix = [0.084526515 | 0.006212121  0.076534091 | -0.002708333  0.006212121  0.084526515]
~ cmatrix = [48.67459408 | 0  48.67459408 | 0  0  48.67459408]
New linecode.607 nphases=1 BaseFreq=60
!!!~ rmatrix = (0.255799 )
!!!~ xmatrix = (0.092284 )
!!!~ cmatrix = (50.7067 )
~ rmatrix = [0.254261364]
~ xmatrix = [0.097045455]
~ cmatrix = [44.70661522]
